/*--------------------------------*- C++ -*----------------------------------*\
| =========                 |                                                 |
| \\      /  F ield         | OpenFOAM: The Open Source CFD Toolbox           |
|  \\    /   O peration     | Version:  1.6                                   |
|   \\  /    A nd           | Web:      http://www.OpenFOAM.org               |
|    \\/     M anipulation  |                                                 |
\*---------------------------------------------------------------------------*/
FoamFile
{
    version     2.0;
    format      ascii;
    class       dictionary;
    object      statisticsDict;
}

// * * * * * * * * * * * * * * * * * * * * * * * * * * * * * * * * * * * * * //

// write statistics as 3D-fields
write3DFields yes;

// Read background concentrations from file and add to result before calculating statics
// If NO2 conversion is not used, the first time-series in the file is used
backgroundSwitch yes;


/*
Convert NOx to NO2 using OSPM-scheme
requires met-data:
  temp: temp at 2m [deg C]
  glob: global rad. [W/m2]
requires background conc:
  NOx_b: background NOx concentration [microg/m3]
  NO2_b: background NO2 concentration [microg/m3]
  O3_b: background O3 concentration [microg/m3]
*/
NO2_conversionSwitch yes;


// met-data in format YY MM DD HH wdir wspeed sigmawdir [temp] [glob]
metFile         "/nobackup/smhid10/sm_davse/jarnvagen/jarnvagen_stat/constant/Meteorological_data_Lejonet_FOR_CALC.txt";

// emission time-series for each source group given in trafficDict
emisFile        "/nobackup/smhid10/sm_davse/jarnvagen/jarnvagen_stat/constant/emissionTimeSeries_mg_per_s.csv";

// background time-series for each source group given in trafficDict
backgroundFile  "/nobackup/smhid10/sm_davse/jarnvagen/jarnvagen_stat/constant/Background_data_Femman_FOR_CALC.txt";

// File with extracted time-series
probeDir       "/nobackup/smhid10/sm_davse/jarnvagen/jarnvagen_stat/probes";

// directory with concentration fields to use in calculations
concFileDir     "/nobackup/smhid10/sm_davse/jarnvagen/concArchive";

// List of paths to files used in the calculation
concFileList
(
"/wspeed_1.0_wdir_0.0/spec_HDV"
"/wspeed_1.0_wdir_0.0/spec_Tunnels"
"/wspeed_1.0_wdir_0.0/spec_LDV"
"/wspeed_1.0_wdir_20.0/spec_LDV"
"/wspeed_1.0_wdir_20.0/spec_Tunnels"
"/wspeed_1.0_wdir_20.0/spec_HDV"
"/wspeed_1.0_wdir_40.0/spec_LDV"
"/wspeed_1.0_wdir_40.0/spec_Tunnels"
"/wspeed_1.0_wdir_40.0/spec_HDV"
"/wspeed_1.0_wdir_60.0/spec_Tunnels"
"/wspeed_1.0_wdir_60.0/spec_HDV"
"/wspeed_1.0_wdir_60.0/spec_LDV"
"/wspeed_1.0_wdir_80.0/spec_LDV"
"/wspeed_1.0_wdir_80.0/spec_Tunnels"
"/wspeed_1.0_wdir_80.0/spec_HDV"
"/wspeed_1.0_wdir_100.0/spec_LDV"
"/wspeed_1.0_wdir_100.0/spec_Tunnels"
"/wspeed_1.0_wdir_100.0/spec_HDV"
"/wspeed_1.0_wdir_120.0/spec_HDV"
"/wspeed_1.0_wdir_120.0/spec_Tunnels"
"/wspeed_1.0_wdir_120.0/spec_LDV"
"/wspeed_1.0_wdir_140.0/spec_HDV"
"/wspeed_1.0_wdir_140.0/spec_Tunnels"
"/wspeed_1.0_wdir_140.0/spec_LDV"
"/wspeed_1.0_wdir_160.0/spec_Tunnels"
"/wspeed_1.0_wdir_160.0/spec_LDV"
"/wspeed_1.0_wdir_160.0/spec_HDV"
"/wspeed_1.0_wdir_180.0/spec_LDV"
"/wspeed_1.0_wdir_180.0/spec_Tunnels"
"/wspeed_1.0_wdir_180.0/spec_HDV"
"/wspeed_1.0_wdir_200.0/spec_HDV"
"/wspeed_1.0_wdir_200.0/spec_LDV"
"/wspeed_1.0_wdir_200.0/spec_Tunnels"
"/wspeed_1.0_wdir_220.0/spec_Tunnels"
"/wspeed_1.0_wdir_220.0/spec_LDV"
"/wspeed_1.0_wdir_220.0/spec_HDV"
"/wspeed_1.0_wdir_240.0/spec_Tunnels"
"/wspeed_1.0_wdir_240.0/spec_LDV"
"/wspeed_1.0_wdir_240.0/spec_HDV"
"/wspeed_1.0_wdir_260.0/spec_LDV"
"/wspeed_1.0_wdir_260.0/spec_Tunnels"
"/wspeed_1.0_wdir_260.0/spec_HDV"
"/wspeed_1.0_wdir_280.0/spec_LDV"
"/wspeed_1.0_wdir_280.0/spec_Tunnels"
"/wspeed_1.0_wdir_280.0/spec_HDV"
"/wspeed_1.0_wdir_300.0/spec_LDV"
"/wspeed_1.0_wdir_300.0/spec_Tunnels"
"/wspeed_1.0_wdir_300.0/spec_HDV"
"/wspeed_1.0_wdir_320.0/spec_HDV"
"/wspeed_1.0_wdir_320.0/spec_Tunnels"
"/wspeed_1.0_wdir_320.0/spec_LDV"
"/wspeed_1.0_wdir_340.0/spec_Tunnels"
"/wspeed_1.0_wdir_340.0/spec_HDV"
"/wspeed_1.0_wdir_340.0/spec_LDV"
"/wspeed_3.0_wdir_0.0/spec_Tunnels"
"/wspeed_3.0_wdir_0.0/spec_LDV"
"/wspeed_3.0_wdir_0.0/spec_HDV"
"/wspeed_3.0_wdir_20.0/spec_HDV"
"/wspeed_3.0_wdir_20.0/spec_LDV"
"/wspeed_3.0_wdir_20.0/spec_Tunnels"
"/wspeed_3.0_wdir_40.0/spec_LDV"
"/wspeed_3.0_wdir_40.0/spec_Tunnels"
"/wspeed_3.0_wdir_40.0/spec_HDV"
"/wspeed_3.0_wdir_60.0/spec_HDV"
"/wspeed_3.0_wdir_60.0/spec_Tunnels"
"/wspeed_3.0_wdir_60.0/spec_LDV"
"/wspeed_3.0_wdir_80.0/spec_LDV"
"/wspeed_3.0_wdir_80.0/spec_HDV"
"/wspeed_3.0_wdir_80.0/spec_Tunnels"
"/wspeed_3.0_wdir_100.0/spec_Tunnels"
"/wspeed_3.0_wdir_100.0/spec_LDV"
"/wspeed_3.0_wdir_100.0/spec_HDV"
"/wspeed_3.0_wdir_120.0/spec_HDV"
"/wspeed_3.0_wdir_120.0/spec_LDV"
"/wspeed_3.0_wdir_120.0/spec_Tunnels"
"/wspeed_3.0_wdir_140.0/spec_HDV"
"/wspeed_3.0_wdir_140.0/spec_LDV"
"/wspeed_3.0_wdir_140.0/spec_Tunnels"
"/wspeed_3.0_wdir_160.0/spec_Tunnels"
"/wspeed_3.0_wdir_160.0/spec_LDV"
"/wspeed_3.0_wdir_160.0/spec_HDV"
"/wspeed_3.0_wdir_180.0/spec_HDV"
"/wspeed_3.0_wdir_180.0/spec_LDV"
"/wspeed_3.0_wdir_180.0/spec_Tunnels"
"/wspeed_3.0_wdir_200.0/spec_HDV"
"/wspeed_3.0_wdir_200.0/spec_LDV"
"/wspeed_3.0_wdir_200.0/spec_Tunnels"
"/wspeed_3.0_wdir_220.0/spec_Tunnels"
"/wspeed_3.0_wdir_220.0/spec_LDV"
"/wspeed_3.0_wdir_220.0/spec_HDV"
"/wspeed_3.0_wdir_240.0/spec_LDV"
"/wspeed_3.0_wdir_240.0/spec_Tunnels"
"/wspeed_3.0_wdir_240.0/spec_HDV"
"/wspeed_3.0_wdir_260.0/spec_HDV"
"/wspeed_3.0_wdir_260.0/spec_LDV"
"/wspeed_3.0_wdir_260.0/spec_Tunnels"
"/wspeed_3.0_wdir_280.0/spec_Tunnels"
"/wspeed_3.0_wdir_280.0/spec_HDV"
"/wspeed_3.0_wdir_280.0/spec_LDV"
"/wspeed_3.0_wdir_300.0/spec_LDV"
"/wspeed_3.0_wdir_300.0/spec_Tunnels"
"/wspeed_3.0_wdir_300.0/spec_HDV"
"/wspeed_3.0_wdir_320.0/spec_LDV"
"/wspeed_3.0_wdir_320.0/spec_Tunnels"
"/wspeed_3.0_wdir_320.0/spec_HDV"
"/wspeed_3.0_wdir_340.0/spec_HDV"
"/wspeed_3.0_wdir_340.0/spec_Tunnels"
"/wspeed_3.0_wdir_340.0/spec_LDV"
"/wspeed_8.0_wdir_0.0/spec_Tunnels"
"/wspeed_8.0_wdir_0.0/spec_LDV"
"/wspeed_8.0_wdir_0.0/spec_HDV"
"/wspeed_8.0_wdir_20.0/spec_LDV"
"/wspeed_8.0_wdir_20.0/spec_HDV"
"/wspeed_8.0_wdir_20.0/spec_Tunnels"
"/wspeed_8.0_wdir_40.0/spec_HDV"
"/wspeed_8.0_wdir_40.0/spec_Tunnels"
"/wspeed_8.0_wdir_40.0/spec_LDV"
"/wspeed_8.0_wdir_60.0/spec_HDV"
"/wspeed_8.0_wdir_60.0/spec_Tunnels"
"/wspeed_8.0_wdir_60.0/spec_LDV"
"/wspeed_8.0_wdir_80.0/spec_Tunnels"
"/wspeed_8.0_wdir_80.0/spec_HDV"
"/wspeed_8.0_wdir_80.0/spec_LDV"
"/wspeed_8.0_wdir_100.0/spec_Tunnels"
"/wspeed_8.0_wdir_100.0/spec_LDV"
"/wspeed_8.0_wdir_100.0/spec_HDV"
"/wspeed_8.0_wdir_120.0/spec_HDV"
"/wspeed_8.0_wdir_120.0/spec_LDV"
"/wspeed_8.0_wdir_120.0/spec_Tunnels"
"/wspeed_8.0_wdir_140.0/spec_HDV"
"/wspeed_8.0_wdir_140.0/spec_LDV"
"/wspeed_8.0_wdir_140.0/spec_Tunnels"
"/wspeed_8.0_wdir_160.0/spec_Tunnels"
"/wspeed_8.0_wdir_160.0/spec_LDV"
"/wspeed_8.0_wdir_160.0/spec_HDV"
"/wspeed_8.0_wdir_180.0/spec_HDV"
"/wspeed_8.0_wdir_180.0/spec_LDV"
"/wspeed_8.0_wdir_180.0/spec_Tunnels"
"/wspeed_8.0_wdir_200.0/spec_HDV"
"/wspeed_8.0_wdir_200.0/spec_LDV"
"/wspeed_8.0_wdir_200.0/spec_Tunnels"
"/wspeed_8.0_wdir_220.0/spec_Tunnels"
"/wspeed_8.0_wdir_220.0/spec_LDV"
"/wspeed_8.0_wdir_220.0/spec_HDV"
"/wspeed_8.0_wdir_240.0/spec_LDV"
"/wspeed_8.0_wdir_240.0/spec_Tunnels"
"/wspeed_8.0_wdir_240.0/spec_HDV"
"/wspeed_8.0_wdir_260.0/spec_HDV"
"/wspeed_8.0_wdir_260.0/spec_LDV"
"/wspeed_8.0_wdir_260.0/spec_Tunnels"
"/wspeed_8.0_wdir_280.0/spec_Tunnels"
"/wspeed_8.0_wdir_280.0/spec_HDV"
"/wspeed_8.0_wdir_280.0/spec_LDV"
"/wspeed_8.0_wdir_300.0/spec_LDV"
"/wspeed_8.0_wdir_300.0/spec_Tunnels"
"/wspeed_8.0_wdir_300.0/spec_HDV"
"/wspeed_8.0_wdir_320.0/spec_LDV"
"/wspeed_8.0_wdir_320.0/spec_Tunnels"
"/wspeed_8.0_wdir_320.0/spec_HDV"
"/wspeed_8.0_wdir_340.0/spec_HDV"
"/wspeed_8.0_wdir_340.0/spec_Tunnels"
"/wspeed_8.0_wdir_340.0/spec_LDV"
);

hourlyPercentile 98;

dailyMaxPercentile 0;

dailyAveragePercentile 98;

nValidsForDaily 18;

maxAllowedConc  100000000000;

probeLocations  
(
 (152 -22 4.2)
 (-81 -53 4.2)
 (-271 -83 4.0)
 (-50 11 6.2)
 (131 28 5.21)
 (-361 -26 6.0)
 (457.51 147.93 4.59)
);

probeNames      
(
kv_soder_om_oscarsleden_east
kv_soder_om_oscarsleden_middle
kv_soder_om_oscarsleden_west
roadside_soder_om_oscarsleden_middle
gotatunnelns_vastra_mynning
roadside_soder_om_oscarsleden_west
debug
);


// ************************************************************************* //
