/*--------------------------------*- C++ -*----------------------------------*\
| =========                 |                                                 |
| \\      /  F ield         | OpenFOAM: The Open Source CFD Toolbox           |
|  \\    /   O peration     | Version:  1.5                                   |
|   \\  /    A nd           | Web:      http://www.OpenFOAM.org               |
|    \\/     M anipulation  |                                                 |
\*---------------------------------------------------------------------------*/
FoamFile
{
    version     2.0;
    format      ascii;
    class       dictionary;
    object      controlDict;
}
// * * * * * * * * * * * * * * * * * * * * * * * * * * * * * * * * * * * * * //

wdirs (30 240);

metFile "/testing/test.asc";

//The z-coord is given from ground level
refPoint (1818.75 -8656.25 18.67);
rasterRefHeight 10;
refz0	0.001;

rasterArchiveDirectory "/home/openfoam/projekt/kraftledning/kraft1_BL/rasters";

refWind.30	14.3;
refWind.240	11.7;

