/*--------------------------------*- C++ -*----------------------------------*\
| =========                 |                                                 |
| \\      /  F ield         | OpenFOAM: The Open Source CFD Toolbox           |
|  \\    /   O peration     | Version:  1.6                                   |
|   \\  /    A nd           | Web:      http://www.OpenFOAM.org               |
|    \\/     M anipulation  |                                                 |
\*---------------------------------------------------------------------------*/
FoamFile
{
    version     2.0;
    format      ascii;
    class       dictionary;
    object      trafficDict;
}

// * * * * * * * * * * * * * * * * * * * * * * * * * * * * * * * * * * * * * //

roadNames (
	sveav6_v      	
	sveav6_o      	
	markvardsg2_n 	
	markvardsg2_s 	
	rehnsg2_n     	
	rehnsg2_s     	
	sveav5_o      	
	sveav5_v      	
	sveav4_v      	
	sveav3_v      	
	sveav2_v      	
	sveav1_v      	
	sveav1_o      	
	sveav2_o      	
	sveav3_o      	
	sveav4_o      	
	kammakarg2_n  	
	kammakarg2_s  	
	kammakarg1_n  	
	kammakarg1_s  	
	tegnerg2_n_   	
	tegnerg2_s    	
	tegnerg1_n    	
	tegnerg1_s    	
	radmansg1_n   	
	radmansg1_s   	
	kungstensg2_n 	
	kungstensg2_s 	
	kungstensg1_n 	
	kungstensg1_s 	
	radmansg2_n   	
	radmansg2_s   
	);	

centrelines (
 	( (35.757011 511.049815 0.000000) (132.728624 322.444477 0.000000) )
 	( (141.625102 326.892716 0.000000) (45.543137 517.277350 0.000000) )
 	( (150.686330 464.681041 0.000000) (91.376475 433.049119 0.000000) )
 	( (94.012468 427.777132 0.000000) (154.200988 461.605716 0.000000) )
 	( (208.101694 362.534899 0.000000) (150.231709 330.887250 0.000000) )
 	( (154.752802 326.366158 0.000000) (213.527005 357.109588 0.000000) )
 	( (190.017324 235.040087 0.000000) (139.381087 330.887250 0.000000) )
 	( (130.338902 324.557721 0.000000) (180.070920 230.518995 0.000000) )
 	( (176.680101 235.322656 0.000000) (235.680359 123.425614 0.000000) )
 	( (232.357356 127.494597 0.000000) (285.932303 27.804505 0.000000) )
 	( (281.863320 34.586144 0.000000) (334.760103 -71.207423 0.000000) )
 	( (331.459706 -65.386516 0.000000) (394.755002 -186.551798 0.000000) )
 	( (406.509843 -180.222268 0.000000) (342.310328 -56.344331 0.000000) )
 	( (344.118765 -62.673861 0.000000) (292.578310 39.502832 0.000000) )
 	( (295.366822 33.982615 0.000000) (241.423883 134.532254 0.000000) )
 	( (244.042446 128.230920 0.000000) (186.759041 241.433841 0.000000) )
 	( (405.642819 -18.397654 0.000000) (342.407891 -52.825559 0.000000) )
 	( (345.218332 -56.338611 0.000000) (407.750650 -21.910705 0.000000) )
 	( (327.653074 -61.256883 0.000000) (284.091234 -85.145634 0.000000) )
 	( (284.793845 -89.361296 0.000000) (329.760905 -66.175155 0.000000) )
 	( (361.378369 71.712119 0.000000) (296.738220 36.581603 0.000000) )
 	( (300.251272 30.258111 0.000000) (366.296641 66.091237 0.000000) )
 	( (283.107580 28.325932 0.000000) (233.924858 1.626740 0.000000) )
 	( (237.437909 -4.696753 0.000000) (286.620632 22.002439 0.000000) )
 	( (228.655281 130.204428 0.000000) (178.067338 102.100015 0.000000) )
 	( (180.175169 95.776523 0.000000) (234.276163 125.286156 0.000000) )
 	( (251.976397 281.715193 0.000000) (187.595948 246.269778 0.000000) )
 	( (189.042700 240.482771 0.000000) (255.593276 276.651562 0.000000) )
 	( (175.298559 234.695764 0.000000) (115.981741 201.420476 0.000000) )
 	( (118.151868 197.803597 0.000000) (178.192062 230.355509 0.000000) )
 	( (306.718223 175.842849 0.000000) (242.281802 139.285043 0.000000) )
 	( (245.700877 132.972904 0.000000) (309.874292 170.582733 0.000000) )
	);

//roadproperties are speed, nlanes, ADT
roadProperties (	
	( 40 1 40000 )		//sveav6_v      
	( 40 1 40000 )		//sveav6_o      
	( 30 1 20000 )		//markvardsg2_n 
	( 30 1 20000 )		//markvardsg2_s 
	( 30 1 20000 )		//rehnsg2_n     
	( 30 1 20000 )		//rehnsg2_s     
	( 40 1 20000 )		//sveav5_o      
	( 40 1 20000 )		//sveav5_v      
	( 40 1 20000 )		//sveav4_v      
	( 40 1 20000 )		//sveav3_v      
	( 40 1 20000 )		//sveav2_v      
	( 40 1 20000 )		//sveav1_v      
	( 40 1 20000 )		//sveav1_o      
	( 40 1 20000 )		//sveav2_o      
	( 40 1 20000 )		//sveav3_o      
	( 40 1 20000 )		//sveav4_o      
	( 30 1 20000 )		//kammakarg2_n  
	( 30 1 20000 )		//kammakarg2_s  
	( 30 1 20000 )		//kammakarg1_n  
	( 30 1 20000 )		//kammakarg1_s  
	( 30 1 20000 )		//tegnerg2_n_   
	( 30 1 20000 )		//tegnerg2_s    
	( 30 1 20000 )		//tegnerg1_n    
	( 30 1 20000 )		//tegnerg1_s    
	( 30 1 20000 )		//radmansg1_n   
	( 30 1 20000 )		//radmansg1_s   
	( 50 1 20000 )		//kungstensg2_n 
	( 50 1 20000 )		//kungstensg2_s 
	( 50 1 20000 )		//kungstensg1_n 
	( 50 1 20000 )		//kungstensg1_s 
	( 20 1 20000 )		//radmansg2_n   
	( 20 1 20000 )		//radmansg2_s 
	);

//Average of the sides of the car bounding box
Acar 6.0;

