/*--------------------------------*- C++ -*----------------------------------*| =========                 |                                                 |
| \      /  F ield         | OpenFOAM: The Open Source CFD Toolbox           |
|  \    /   O peration     | Version:  2.3                                   |
|   \  /    A nd           | Web:      http://www.OpenFOAM.org               |
|    \/     M anipulation  |                                                 |
\*---------------------------------------------------------------------------*/
FoamFile
{
    version     2.3;
    format      ascii;
    class       dictionary;
    object      trafficDict;
}

// * * * * * * * * * * * * * * * * * * * * * * * * * * * * * * * * * * * * * //

traffic yes;


//Average of the sides of the car bounding box
Acar 6.0;

//Cfcar according to wind tunnel experiments by Mochida 2008
Cfcar 0.64;

//Cecar according to wind tunnel experiments by Mochida 2008
Cecar 2.47;

L 10;

roadNames (
road_1
road_3
road_4
road_9
road_13
road_15
road_23
road_28
road_32
road_33
road_35
road_40
road_46
road_49
road_50
road_54
road_55
road_59
road_60
road_62
road_67
road_70
road_71
road_75
road_78
road_81
road_82
road_87
road_90
road_99
road_101
road_102
road_104
road_110
road_111
road_113
road_115
road_116
road_119
road_122
road_123
road_124
road_127
road_129
road_130
road_131
road_133
road_136
road_142
road_145
road_147
road_156
road_160
road_161
road_164
road_168
road_170
road_174
road_178
road_179
road_180
road_183
road_184
road_186
road_189
road_198
road_201
road_203
road_206
road_208
road_209
road_210
road_211
road_212
road_213
road_214
road_218
road_219
road_223
road_225
road_228
road_231
road_233
road_234
road_236
road_240
road_245
road_246
road_248
road_250
road_251
road_258
road_261
road_263
road_265
road_269
road_273
road_274
road_275
road_277
road_279
road_280
road_283
road_285
road_286
road_288
road_293
road_295
road_303
road_304
road_306
road_309
road_310
road_312
road_318
road_322
road_324
road_325
road_327
road_332
road_339
road_340
road_347
road_348
road_349
road_350
road_351
road_355
road_357
road_359
road_362
road_363
road_364
road_368
road_369
road_370
road_373
road_375
road_376
road_379
road_380
road_381
road_385
road_388
road_389
road_391
road_396
road_397
road_400
road_401
road_408
road_416
road_417
road_419
road_422
road_424
road_425
road_426
road_427
road_429
road_431
road_432
road_434
road_436
road_440
road_444
// GotaTunnelNorr
// GotaTunnelSoder
// GotaTunnelAvfartNorr
// GotaTunnelAvfartSoder
);

centreLines (
((318084.044857 6399508.885537 0) (318086.199887 6399512.607691 0) (318153.000000 6399523.000000 0))
((318341.000000 6399450.000000 0) (318346.000000 6399448.000000 0) (318349.000000 6399445.000000 0) (318356.000000 6399439.000000 0))
((318539.000000 6399575.000000 0) (318526.000000 6399581.000000 0))
((317853.000000 6399344.000000 0) (317996.000000 6399364.000000 0) (318019.000000 6399367.000000 0))
((317677.000000 6399318.000000 0) (317682.000000 6399320.000000 0) (317688.000000 6399323.000000 0) (317691.000000 6399325.000000 0))
((317602.000000 6399395.000000 0) (317619.501243 6399391.417205 0) (317637.716559 6399392.705122 0) (317657.872202 6399395.824966 0) (317671.433624 6399397.235208 0))
((317671.433624 6399397.235208 0) (317712.431404 6399397.611085 0))
((317797.000000 6399400.000000 0) (317796.000000 6399407.000000 0))
((318173.000000 6399515.245148 0) (318214.947246 6399522.927887 0) (318245.847752 6399527.227168 0) (318277.000000 6399520.000000 0) (318288.000000 6399521.000000 0))
((318306.000000 6399579.000000 0) (318301.970032 6399593.782019 0) (318298.767035 6399607.000000 0) (318291.173029 6399615.594006 0))
((318018.000000 6399384.000000 0) (318019.000000 6399367.000000 0))
((318222.000000 6399576.000000 0) (318183.000000 6399566.000000 0) (318128.000000 6399553.000000 0))
((318173.000000 6399515.245148 0) (318178.088086 6399495.817062 0) (318180.000000 6399477.254726 0))
((318191.000000 6399409.000000 0) (318033.000000 6399386.000000 0) (318018.000000 6399384.000000 0))
((318289.000000 6399561.000000 0) (318290.000000 6399551.000000 0) (318292.000000 6399543.000000 0))
((318477.000000 6399411.000000 0) (318460.000000 6399415.000000 0))
((318366.000000 6399434.000000 0) (318389.000000 6399431.000000 0) (318460.000000 6399415.000000 0))
((318366.000000 6399434.000000 0) (318362.000000 6399442.000000 0))
((318364.000000 6399339.000000 0) (318231.000000 6399322.000000 0) (318202.000000 6399318.000000 0))
((318307.000000 6399564.000000 0) (318309.000000 6399545.000000 0))
((318463.000000 6399434.000000 0) (318458.000000 6399435.000000 0) (318365.000000 6399454.000000 0) (318353.000000 6399460.000000 0))
((317854.000000 6399339.000000 0) (317863.000000 6399269.000000 0))
((317691.000000 6399325.000000 0) (317704.000000 6399325.000000 0))
((317676.000000 6399350.000000 0) (317671.000000 6399349.000000 0) (317667.000000 6399347.000000 0) (317664.000000 6399344.000000 0))
((318373.000000 6399341.000000 0) (318371.000000 6399329.000000 0) (318351.000000 6399274.000000 0) (318345.000000 6399265.000000 0))
((318153.000000 6399523.000000 0) (318252.421625 6399539.462729 0))
((317853.000000 6399344.000000 0) (317854.000000 6399339.000000 0))
((317712.431404 6399397.611085 0) (317742.000000 6399398.971901 0) (317774.657300 6399402.514969 0) (317796.000000 6399407.000000 0))
((318333.000000 6399432.000000 0) (318333.000000 6399430.000000 0) (318191.000000 6399409.000000 0))
((317844.000000 6399413.000000 0) (317939.000000 6399429.000000 0) (317974.000000 6399435.000000 0) (318011.344538 6399448.910188 0))
((318306.000000 6399579.000000 0) (318287.000000 6399575.000000 0))
((318219.688713 6399558.400792 0) (318145.856327 6399544.727574 0) (318080.050361 6399528.298636 0) (318067.885009 6399524.879522 0) (318065.318253 6399521.112680 0))
((317814.000000 6399262.000000 0) (317784.000000 6399257.000000 0) (317767.000000 6399252.000000 0) (317756.000000 6399254.000000 0) (317732.000000 6399263.000000 0) (317730.000000 6399264.000000 0))
((318460.000000 6399560.000000 0) (318425.000000 6399555.000000 0) (318418.000000 6399551.264911 0) (318401.640517 6399546.414830 0) (318391.994096 6399540.361358 0) (318358.689952 6399526.850081 0) (318351.000000 6399522.000000 0) (318346.574960 6399519.944653 0))
((318065.318253 6399521.112680 0) (318058.038816 6399518.354060 0))
((318058.038816 6399518.354060 0) (317989.000000 6399506.000000 0) (317902.000000 6399494.000000 0) (317836.000000 6399485.000000 0) (317786.000000 6399478.000000 0))
((317803.000000 6399337.000000 0) (317814.000000 6399338.000000 0) (317851.000000 6399344.000000 0) (317853.000000 6399344.000000 0))
((317796.000000 6399407.000000 0) (317792.000000 6399415.000000 0) (317791.000000 6399430.000000 0))
((317684.000000 6399292.000000 0) (317679.000000 6399303.000000 0) (317678.000000 6399309.000000 0))
((318473.000000 6399562.000000 0) (318478.339455 6399521.658434 0) (318488.000000 6399517.000000 0) (318495.000000 6399514.000000 0))
((317803.000000 6399337.000000 0) (317804.000000 6399330.000000 0))
((317692.000000 6399343.000000 0) (317688.000000 6399346.000000 0) (317684.000000 6399349.000000 0) (317676.000000 6399350.000000 0))
((317664.000000 6399344.000000 0) (317655.000000 6399345.000000 0))
((318317.000000 6399486.000000 0) (318321.000000 6399480.000000 0) (318335.000000 6399460.000000 0))
((318362.000000 6399269.000000 0) (318384.000000 6399333.000000 0) (318383.000000 6399338.000000 0))
((318335.000000 6399484.000000 0) (318336.000000 6399493.000000 0) (318334.000000 6399499.000000 0) (318331.000000 6399507.000000 0) (318330.609887 6399510.355186 0) (318330.000000 6399514.090275 0))
((318012.230305 6399432.428834 0) (318014.973740 6399407.428834 0) (318016.144171 6399398.000000 0))
((318521.000000 6399572.000000 0) (318495.000000 6399514.000000 0))
((317581.383604 6399461.236659 0) (317697.767208 6399462.354988 0) (317707.293890 6399462.501933 0))
((318537.000000 6399605.000000 0) (318535.000000 6399601.000000 0) (318526.000000 6399581.000000 0))
((318317.719804 6399578.276239 0) (318306.000000 6399579.000000 0))
((318100.726370 6399460.397058 0) (318109.948842 6399463.132232 0) (318123.717175 6399468.050680 0) (318146.833002 6399471.023186 0) (318170.513130 6399468.481353 0))
((317662.000000 6399329.000000 0) (317665.000000 6399324.000000 0) (317669.000000 6399321.000000 0) (317677.000000 6399318.000000 0))
((318070.530549 6399506.959010 0) (318084.044857 6399508.885537 0))
((318342.000000 6399412.000000 0) (318348.000000 6399413.000000 0) (318357.000000 6399413.000000 0) (318364.000000 6399410.000000 0))
((318020.000000 6399362.000000 0) (318030.000000 6399294.000000 0))
((318473.000000 6399570.000000 0) (318484.000000 6399570.000000 0))
((317707.293890 6399462.501933 0) (317725.652745 6399462.971384 0) (317731.795824 6399463.118329 0) (317737.175561 6399463.440835 0) (317744.763341 6399464.000000 0) (317758.734725 6399465.440835 0) (317782.000000 6399468.000000 0))
((318306.000000 6399483.000000 0) (318317.000000 6399486.000000 0))
((318018.000000 6399384.000000 0) (317869.000000 6399363.000000 0) (317855.000000 6399361.000000 0))
((318521.000000 6399572.000000 0) (318509.000000 6399567.000000 0) (318473.000000 6399562.000000 0))
((318128.000000 6399553.000000 0) (318127.000000 6399553.000000 0) (318118.000000 6399550.000000 0))
((318316.000000 6399511.000000 0) (318308.000000 6399499.000000 0))
((318190.000000 6399414.000000 0) (318191.000000 6399409.000000 0))
((317802.000000 6399360.000000 0) (317801.000000 6399373.000000 0) (317798.000000 6399389.000000 0))
((317786.000000 6399478.000000 0) (317763.000000 6399475.000000 0) (317740.000000 6399473.000000 0) (317717.000000 6399472.000000 0) (317683.000000 6399472.000000 0) (317634.000000 6399471.000000 0) (317598.000000 6399471.000000 0) (317576.000000 6399470.000000 0) (317555.000000 6399468.000000 0))
((318287.000000 6399575.000000 0) (318289.000000 6399565.000000 0))
((317841.000000 6399439.000000 0) (317838.000000 6399464.000000 0))
((318030.000000 6399294.000000 0) (318041.000000 6399222.000000 0))
((318247.000000 6399604.000000 0) (318243.000000 6399599.000000 0) (318239.000000 6399593.000000 0) (318230.000000 6399582.000000 0) (318222.000000 6399576.000000 0))
((318019.000000 6399367.000000 0) (318020.000000 6399362.000000 0))
((317782.000000 6399468.000000 0) (317788.000000 6399469.000000 0) (317824.000000 6399474.000000 0))
((318463.000000 6399434.000000 0) (318489.000000 6399429.000000 0))
((317803.000000 6399354.000000 0) (317802.000000 6399360.000000 0))
((317848.000000 6399409.000000 0) (317844.000000 6399413.000000 0))
((318330.000000 6399514.090275 0) (318322.839871 6399512.780226 0) (318316.000000 6399511.000000 0))
((318356.000000 6399439.000000 0) (318357.000000 6399438.000000 0) (318366.000000 6399434.000000 0))
((317676.000000 6399359.000000 0) (317676.000000 6399350.000000 0))
((318316.000000 6399511.000000 0) (318311.000000 6399527.000000 0))
((317664.000000 6399344.000000 0) (317662.000000 6399338.000000 0) (317662.000000 6399329.000000 0))
((317654.000000 6399330.000000 0) (317662.000000 6399329.000000 0))
((318353.000000 6399460.000000 0) (318335.000000 6399484.000000 0))
((318011.344538 6399448.910188 0) (318032.372637 6399458.335344 0) (318055.291163 6399460.011029 0) (318100.726370 6399460.397058 0))
((318459.000000 6399567.000000 0) (318473.000000 6399570.000000 0))
((318309.000000 6399545.000000 0) (318309.000000 6399541.000000 0))
((318484.000000 6399570.000000 0) (318515.221782 6399574.354060 0) (318519.466931 6399577.066139 0))
((318309.000000 6399541.000000 0) (318311.000000 6399528.000000 0) (318311.000000 6399527.000000 0))
((317791.000000 6399430.000000 0) (317790.000000 6399432.000000 0) (317788.000000 6399458.000000 0))
((318292.000000 6399540.000000 0) (318294.000000 6399525.000000 0) (318295.000000 6399522.000000 0))
((317854.000000 6399366.000000 0) (317849.000000 6399404.000000 0) (317848.000000 6399409.000000 0))
((318335.000000 6399460.000000 0) (318341.000000 6399450.000000 0))
((317721.000000 6399343.000000 0) (317711.000000 6399343.000000 0) (317702.000000 6399343.000000 0))
((318448.000000 6399340.000000 0) (318431.000000 6399344.000000 0) (318420.000000 6399346.000000 0) (318395.000000 6399341.000000 0) (318383.000000 6399338.000000 0))
((317838.000000 6399464.000000 0) (317836.000000 6399476.000000 0))
((318254.000000 6399471.514969 0) (318285.000000 6399477.000000 0) (318306.000000 6399483.000000 0))
((317798.000000 6399389.000000 0) (317797.000000 6399400.000000 0))
((318335.000000 6399460.000000 0) (318331.000000 6399456.000000 0) (318330.000000 6399450.000000 0) (318331.000000 6399442.000000 0) (318333.000000 6399432.000000 0))
((318308.000000 6399499.000000 0) (318317.000000 6399486.000000 0))
((318383.000000 6399338.000000 0) (318382.307103 6399343.347424 0) (318374.000000 6399408.000000 0) (318366.000000 6399434.000000 0))
((317863.000000 6399269.000000 0) (317814.000000 6399262.000000 0))
((318436.000000 6399671.000000 0) (318433.000000 6399666.000000 0) (318430.107401 6399662.441151 0) (318424.441151 6399654.934751 0))
((318442.000000 6399683.000000 0) (318436.000000 6399671.000000 0))
((318470.000000 6399725.000000 0) (318445.000000 6399689.000000 0) (318442.000000 6399683.000000 0))
((318341.000000 6399450.000000 0) (318340.000000 6399446.000000 0) (318342.000000 6399440.000000 0) (318346.000000 6399433.000000 0))
((317673.509704 6399379.533069 0) (317676.000000 6399359.000000 0))
((318181.574480 6399466.519870 0) (318183.000000 6399452.000000 0) (318190.000000 6399414.000000 0))
((317844.000000 6399477.000000 0) (318009.808198 6399497.959010 0) (318048.102088 6399503.693735 0) (318070.530549 6399506.959010 0))
((318335.000000 6399484.000000 0) (318324.000000 6399497.000000 0) (318316.000000 6399511.000000 0))
((318192.000000 6399390.000000 0) (318192.000000 6399386.000000 0))
((318019.000000 6399367.000000 0) (318038.000000 6399371.000000 0) (318048.000000 6399372.000000 0) (318173.000000 6399389.000000 0) (318192.000000 6399390.000000 0))
((318495.000000 6399514.000000 0) (318481.000000 6399479.000000 0) (318463.000000 6399434.000000 0))
((318118.000000 6399550.000000 0) (318065.000000 6399537.000000 0) (317983.000000 6399520.000000 0) (317749.000000 6399488.000000 0) (317656.000000 6399482.000000 0) (317616.000000 6399482.000000 0) (317534.000000 6399478.000000 0) (317463.000000 6399464.000000 0) (317401.000000 6399455.000000 0) (317332.000000 6399451.000000 0) (317302.000000 6399450.000000 0) (317281.000000 6399453.000000 0))
((317804.000000 6399330.000000 0) (317814.000000 6399262.000000 0))
((318362.000000 6399442.000000 0) (318360.000000 6399447.000000 0) (318353.000000 6399460.000000 0))
((318291.173029 6399615.594006 0) (318275.000000 6399612.000000 0) (318271.000000 6399612.000000 0))
((318473.000000 6399562.000000 0) (318460.000000 6399560.000000 0))
((317257.000000 6399461.000000 0) (317287.000000 6399478.000000 0) (317530.000000 6399489.000000 0) (317847.000000 6399540.000000 0) (317864.000000 6399573.000000 0))
((318287.000000 6399575.000000 0) (318278.000000 6399572.000000 0))
((318519.466931 6399577.066139 0) (318523.548545 6399581.669409 0) (318526.000000 6399581.000000 0))
((317796.000000 6399407.000000 0) (317844.000000 6399413.000000 0))
((318192.000000 6399390.000000 0) (318209.000000 6399396.000000 0) (318342.000000 6399412.000000 0))
((317870.000000 6399270.000000 0) (317863.000000 6399269.000000 0))
((318291.173029 6399615.594006 0) (318286.000000 6399607.000000 0) (318286.000000 6399595.000000 0) (318287.000000 6399575.000000 0))
((318311.000000 6399527.000000 0) (318327.000000 6399532.000000 0))
((318011.344538 6399448.910188 0) (318012.000000 6399470.000000 0) (318009.000000 6399490.000000 0))
((317671.433624 6399397.235208 0) (317673.509704 6399379.533069 0))
((318180.000000 6399477.254726 0) (318181.574480 6399466.519870 0))
((317704.000000 6399325.000000 0) (317744.000000 6399328.000000 0) (317785.000000 6399334.000000 0) (317803.000000 6399337.000000 0))
((317855.000000 6399361.000000 0) (317810.000000 6399355.000000 0) (317803.000000 6399354.000000 0))
((317721.000000 6399343.000000 0) (317721.000000 6399351.000000 0))
((318222.000000 6399576.000000 0) (318236.000000 6399578.000000 0) (318255.000000 6399579.000000 0) (318261.000000 6399582.000000 0) (318263.000000 6399588.000000 0) (318262.000000 6399595.000000 0) (318257.000000 6399600.000000 0) (318247.000000 6399604.000000 0))
((318250.076568 6399551.500923 0) (318236.393566 6399549.073934 0) (318076.655370 6399520.607464 0) (318065.318253 6399521.112680 0))
((318214.000000 6399249.000000 0) (318202.000000 6399318.000000 0))
((317855.000000 6399361.000000 0) (317854.000000 6399366.000000 0))
((318346.000000 6399433.000000 0) (318358.000000 6399420.000000 0) (318364.000000 6399410.000000 0))
((318030.000000 6399294.000000 0) (317870.000000 6399270.000000 0))
((318170.513130 6399468.481353 0) (318181.574480 6399466.519870 0))
((318181.574480 6399466.519870 0) (318195.669305 6399465.622574 0) (318222.131795 6399467.310311 0) (318254.000000 6399471.514969 0))
((317730.000000 6399264.000000 0) (317695.000000 6399278.000000 0) (317688.000000 6399281.000000 0) (317684.000000 6399292.000000 0))
((318525.000000 6399579.000000 0) (318521.000000 6399572.000000 0))
((317836.000000 6399476.000000 0) (317844.000000 6399477.000000 0))
((318016.144171 6399398.000000 0) (318016.372637 6399393.172269 0) (318018.000000 6399384.000000 0))
((318495.000000 6399514.000000 0) (318512.000000 6399507.000000 0))
((318030.000000 6399294.000000 0) (318202.000000 6399318.000000 0))
((318192.000000 6399386.000000 0) (318202.000000 6399318.000000 0))
((318373.000000 6399341.000000 0) (318364.000000 6399339.000000 0))
((318307.000000 6399567.000000 0) (318307.000000 6399564.000000 0))
((318306.000000 6399579.000000 0) (318307.000000 6399567.000000 0))
((318278.000000 6399572.000000 0) (318219.688713 6399558.400792 0))
((317678.000000 6399309.000000 0) (317677.000000 6399318.000000 0))
((317691.000000 6399325.000000 0) (317693.000000 6399329.000000 0) (317693.000000 6399338.000000 0) (317692.000000 6399343.000000 0))
((317702.000000 6399343.000000 0) (317692.000000 6399343.000000 0))
((318288.000000 6399521.000000 0) (318295.000000 6399522.000000 0))
((318271.000000 6399612.000000 0) (318264.000000 6399611.000000 0) (318257.000000 6399609.000000 0) (318251.000000 6399606.000000 0) (318247.000000 6399604.000000 0))
((317844.000000 6399413.000000 0) (317841.000000 6399439.000000 0))
((318364.000000 6399410.000000 0) (318368.000000 6399401.000000 0) (318373.000000 6399357.000000 0) (318373.000000 6399341.000000 0))
((318292.000000 6399543.000000 0) (318292.000000 6399540.000000 0))
((318011.344538 6399448.910188 0) (318012.230305 6399432.428834 0))
((318289.000000 6399565.000000 0) (318289.000000 6399561.000000 0))
((317824.000000 6399474.000000 0) (317836.000000 6399476.000000 0))
((318295.000000 6399522.000000 0) (318302.000000 6399509.000000 0) (318308.000000 6399499.000000 0))
((318192.000000 6399390.000000 0) (318191.000000 6399409.000000 0))
((318346.574960 6399519.944653 0) (318336.264911 6399516.965073 0) (318330.000000 6399514.090275 0))
((317803.000000 6399354.000000 0) (317795.000000 6399352.000000 0) (317721.000000 6399343.000000 0))
((318084.044857 6399508.885537 0) (318090.396097 6399508.153617 0) (318102.910286 6399508.722351 0) (318122.000000 6399510.000000 0) (318146.000000 6399511.000000 0) (318173.000000 6399515.245148 0))
((318295.000000 6399522.000000 0) (318311.000000 6399527.000000 0))
);


//roadproperties are speed, nolanes, ADT
roadProperties (
(5 3 28163)
(3 2 8561)
(2 2 303)
(3 2 2140)
(3 2 2094)
(2 3 2185)
(2 3 2185)
(2 3 303)
(3 2 6500)
(3 2 5773)
(2 2 641)
(2 2 1275)
(2 2 303)
(3 2 2823)
(3 3 5773)
(3 2 6831)
(3 2 6831)
(2 2 4795)
(2 1 546)
(3 2 5773)
(3 2 8561)
(2 2 303)
(3 2 2140)
(3 2 2140)
(2 1 5191)
(5 3 28163)
(2 2 303)
(2 3 2185)
(3 2 1366)
(2 2 2277)
(3 2 5900)
(5 2 1821)
(2 3 1821)
(2 2 303)
(5 3 28163)
(5 3 25993)
(3 2 2140)
(2 3 320)
(2 4 1821)
(2 2 303)
(2 2 303)
(3 2 2140)
(3 2 1593)
(3 3 12386)
(2 2 5191)
(3 2 1917)
(2 2 320)
(2 2 1275)
(5 2 25993)
(2 2 774)
(3 2 5900)
(2 2 2277)
(3 2 2140)
(5 3 28163)
(3 2 1366)
(2 4 5464)
(5 3 0)
(5 2 25993)
(3 3 1730)
(3 1 2140)
(2 2 303)
(2 3 1275)
(2 2 1518)
(2 2 4371)
(2 3 303)
(5 3 25993)
(3 3 1821)
(2 2 1639)
(2 2 5373)
(2 2 1275)
(2 4 5464)
(5 2 25993)
(3 2 8561)
(2 3 303)
(2 2 288)
(2 2 1518)
(3 2 8561)
(2 2 303)
(3 2 12386)
(3 2 2140)
(3 1 1593)
(3 2 12386)
(2 2 2277)
(5 3 0)
(3 2 5773)
(5 3 0)
(3 2 5773)
(2 3 320)
(3 3 5773)
(2 2 320)
(3 3 12386)
(3 2 2140)
(1 2 303)
(2 2 1639)
(3 3 1730)
(2 3 303)
(3 1 1366)
(3 3 12386)
(2 2 4795)
(2 2 1092)
(2 2 8743)
(2 5 8743)
(2 5 8743)
(2 2 3187)
(2 2 303)
(2 2 4371)
(5 2 25993)
(3 2 12386)
(2 2 1366)
(3 4 2823)
(2 2 1275)
(2 2 1184)
(2 2 303)
(2 2 4795)
(2 2 1275)
(2 2 303)
(2 3 303)
(3 2 5900)
(5 3 0)
(2 3 2185)
(3 2 1366)
(2 2 1092)
(3 3 5773)
(3 2 6500)
(2 2 320)
(2 2 303)
(2 2 303)
(3 2 2140)
(3 1 2140)
(2 2 303)
(2 2 303)
(5 3 28163)
(2 2 1457)
(2 2 320)
(2 2 3187)
(2 2 1001)
(2 2 2277)
(2 3 1730)
(2 3 1821)
(2 2 1275)
(5 2 25993)
(2 2 641)
(2 2 303)
(2 2 819)
(2 2 1366)
(2 1 546)
(3 2 5773)
(3 2 5773)
(3 2 5900)
(2 4 1821)
(3 2 2140)
(3 2 2140)
(3 2 6500)
(2 2 1275)
(2 2 1639)
(2 2 4795)
(3 3 5773)
(2 2 641)
(3 3 5773)
(5 2 25993)
(3 3 12386)
(2 2 4371)
(2 2 1518)
(3 2 2140)
(3 2 6500)
(3 2 6500)

);

emissionGroupNames (
LDV
HDV
//tunnels
);

roadClassification (
(0 0 0.0374394070405)
(0 1 0.030228105501)
(1 0 0.00314398004528)
(1 1 0.00569518785879)
(2 0 6.11897452616e-05)
(2 1 5.65916290039e-05)
(3 0 0.00720820886625)
(3 1 0.00987298990745)
(4 0 0.000640620603099)
(4 1 0.00115940199236)
(5 0 0.000833492487291)
(5 1 0.0013282650315)
(6 0 0.00183307152169)
(6 1 0.00292120785685)
(7 0 4.67358116531e-05)
(7 1 2.48183457773e-05)
(8 0 0.0142813597847)
(8 1 0.0186628045611)
(9 0 0.00460273003714)
(9 1 0.00748010432839)
(10 0 0.00023778629213)
(10 1 0.000131495081505)
(11 0 0.00251054344271)
(11 1 0.00424590795874)
(12 0 0.000250029948798)
(12 1 0.000174392598285)
(13 0 0.00990510933629)
(13 1 0.013746865657)
(14 0 0.00205804680608)
(14 1 0.0037287175363)
(15 0 0.000452002439001)
(15 1 0.000818377390612)
(16 0 0.0143937459854)
(16 1 0.00265123737707)
(17 0 0.000846195256555)
(17 1 0.00188671930995)
(18 0 0.00191618425528)
(18 1 0.00149072636907)
(19 0 0.00214903488907)
(19 1 0.00389356746081)
(20 0 0.0189226563552)
(20 1 0.0342775975604)
(21 0 0.00045532497339)
(21 1 0.000421109482645)
(22 0 0.000542069350916)
(22 1 0.000982067006165)
(23 0 0.000576002731986)
(23 1 0.00104354411034)
(24 0 0.00823727041157)
(24 1 0.0111367318715)
(25 0 0.0556814697941)
(25 1 0.0449565171149)
(26 0 3.04810353642e-05)
(26 1 6.8007701887e-05)
(27 0 0.00376150622721)
(27 1 0.00599438778819)
(28 0 0.00405563180291)
(28 1 0.0047179829712)
(29 0 0.00773314722021)
(29 1 0.0139128447304)
(30 0 0.00215368834156)
(30 1 0.00281442840247)
(31 0 0.00535685837734)
(31 1 0.00559848545043)
(32 0 0.00140994390191)
(32 1 0.00110068400383)
(33 0 0.000784846068212)
(33 1 0.000725868645597)
(34 0 0.00428988235325)
(34 1 0.0034635969587)
(35 0 0.141996464802)
(35 1 0.0978629016773)
(36 0 0.00216095104857)
(36 1 0.00313345671309)
(37 0 0.000155233053442)
(37 1 0.00027771983928)
(38 0 0.000740884185647)
(38 1 8.2886902997e-05)
(39 0 0.000380861529775)
(39 1 0.000352241610139)
(40 0 4.56192564258e-05)
(40 1 4.21911878215e-05)
(41 0 0.000753153564131)
(41 1 0.00136448826088)
(42 0 0.000318287498448)
(42 1 3.82878658393e-05)
(43 0 0.00767172719689)
(43 1 0.0133267393636)
(44 0 0.00757811558182)
(44 1 0.0102455591609)
(45 0 0.00116120148196)
(45 1 0.00210301843112)
(46 0 0.000242154832523)
(46 1 0.000121540805007)
(47 0 0.00172485851419)
(47 1 0.0016062421116)
(48 0 0.0307808629193)
(48 1 0.0217557001612)
(49 0 0.000435393328762)
(49 1 0.00039849558205)
(50 0 0.00130024325523)
(50 1 0.00169915092961)
(51 0 0.00195953673198)
(51 1 0.00352543789989)
(52 0 0.000807889971376)
(52 1 0.00146365420616)
(53 0 0.00607351159784)
(53 1 0.00434813627449)
(54 0 0.000632500401843)
(54 1 0.000735798087744)
(55 0 0.00772734219839)
(55 1 0.0115793454532)
(56 0 0.0)
(56 1 0.0)
(57 0 0.0386337808454)
(57 1 0.0273060880186)
(58 0 0.000397176388194)
(58 1 0.000533532929419)
(59 0 0.00708038069228)
(59 1 0.00969790532058)
(60 0 0.000298231027325)
(60 1 0.000275820394147)
(61 0 0.000270861328852)
(61 1 0.000478492937881)
(62 0 0.000443104276929)
(62 1 0.000789667191542)
(63 0 0.000457675621563)
(63 1 0.000701553135255)
(64 0 0.000179882509234)
(64 1 0.00031898656269)
(65 0 0.0718318787977)
(65 1 0.0495059937013)
(66 0 0.000369354051118)
(66 1 0.000560549868817)
(67 0 0.00080825182874)
(67 1 0.00190891332239)
(68 0 0.00753982170926)
(68 1 0.0129729772463)
(69 0 0.000981286279106)
(69 1 0.0016595814083)
(70 0 0.000573273510398)
(70 1 0.000859044655415)
(71 0 0.0218676467449)
(71 1 0.0154559008647)
(72 0 0.00141003744644)
(72 1 0.00255422363684)
(73 0 3.73221739729e-05)
(73 1 6.61835997197e-05)
(74 0 3.54745546472e-05)
(74 1 1.98546766219e-05)
(75 0 0.000437350317119)
(75 1 0.000779412916149)
(76 0 0.00187882496524)
(76 1 0.0034034125461)
(77 0 5.80638340285e-05)
(77 1 5.37006150268e-05)
(78 0 0.00404527124198)
(78 1 0.00733344182477)
(79 0 0.000638997827352)
(79 1 0.00115767232033)
(80 0 0.000186744470627)
(80 1 0.000354910322965)
(81 0 0.00727770870417)
(81 1 0.0126422804898)
(82 0 0.00418556926044)
(82 1 0.00753033319689)
(83 0 0.0)
(83 1 0.0)
(84 0 0.000449942508567)
(84 1 0.000815194541284)
(85 0 0.0)
(85 1 0.0)
(86 0 0.00159200305598)
(86 1 0.00288435116983)
(87 0 0.000183300257493)
(87 1 0.000327933496908)
(88 0 0.00205792720441)
(88 1 0.003728500845)
(89 0 0.000281147641817)
(89 1 0.000502987451242)
(90 0 0.00282906462391)
(90 1 0.00491443529182)
(91 0 0.000792255205185)
(91 1 0.00143532870132)
(92 0 0.000441673126553)
(92 1 0.000412344923978)
(93 0 0.000403957647707)
(93 1 0.000713074913109)
(94 0 0.0018574489356)
(94 1 0.00249513868728)
(95 0 6.77713265024e-05)
(95 1 0.00012017923578)
(96 0 0.000860679625448)
(96 1 0.000659595342325)
(97 0 0.00381561450828)
(97 1 0.00691711021299)
(98 0 0.00968295508342)
(98 1 0.0138991768941)
(99 0 0.00116121743629)
(99 1 0.000903387786295)
(100 0 0.0032745368831)
(100 1 0.00699918681799)
(101 0 0.00232643166564)
(101 1 0.00497265122624)
(102 0 0.00529993466715)
(102 1 0.0113283906039)
(103 0 0.0011641111458)
(103 1 0.00259218047826)
(104 0 0.000133239035216)
(104 1 0.000123226759934)
(105 0 0.00475445837864)
(105 1 0.00728792407728)
(106 0 0.117663624906)
(106 1 0.084225311311)
(107 0 0.00804281467207)
(107 1 0.0139713642226)
(108 0 0.000110984484623)
(108 1 0.000190935520095)
(109 0 0.00989634558127)
(109 1 0.0137347028268)
(110 0 0.00227017319406)
(110 1 0.00323586644199)
(111 0 0.0110633567098)
(111 1 0.0261221585426)
(112 0 0.000443422927114)
(112 1 0.000410101818136)
(113 0 0.00190634009393)
(113 1 0.00425047131698)
(114 0 0.00050541576082)
(114 1 0.000854774613667)
(115 0 8.45196441327e-05)
(115 1 7.81683977251e-05)
(116 0 0.00155946038054)
(116 1 0.00144227440276)
(117 0 0.00105228513817)
(117 1 0.00137512058882)
(118 0 0.0)
(118 1 0.0)
(119 0 0.00229697990476)
(119 1 0.00135826886145)
(120 0 0.00423514775253)
(120 1 0.00492681681869)
(121 0 0.000165888205185)
(121 1 0.000129055398042)
(122 0 0.00469823051197)
(122 1 0.00851213609321)
(123 0 0.0020484562219)
(123 1 0.0026769116315)
(124 0 0.000287119183688)
(124 1 0.00015903293654)
(125 0 0.000109485506864)
(125 1 0.000101258195458)
(126 0 6.36714770816e-05)
(126 1 0.000112908952083)
(127 0 0.00416131331581)
(127 1 0.00753905105107)
(128 0 0.00218784634337)
(128 1 0.0039637210714)
(129 0 4.90858208415e-05)
(129 1 8.70441341612e-05)
(130 0 0.000458792402016)
(130 1 0.000424316350619)
(131 0 0.103599324903)
(131 1 0.0836447895558)
(132 0 0.00203676310875)
(132 1 0.00350239681495)
(133 0 3.30115364133e-05)
(133 1 5.90593200598e-05)
(134 0 0.00192422464744)
(134 1 0.00289505717511)
(135 0 0.00347809715)
(135 1 0.0027257166509)
(136 0 0.000550919192774)
(136 1 0.000406121750427)
(137 0 0.00269511498699)
(137 1 0.00200654072683)
(138 0 0.000120503394147)
(138 1 0.000309492885077)
(139 0 0.000218785971926)
(139 1 0.000203740329218)
(140 0 0.00415132920866)
(140 1 0.00297158102374)
(141 0 0.00019756172127)
(141 1 0.000109251018669)
(142 0 7.11660400251e-05)
(142 1 6.58182530024e-05)
(143 0 0.00305175941548)
(143 1 0.00243816722378)
(144 0 0.00190702867255)
(144 1 0.00328081454509)
(145 0 0.000100919698602)
(145 1 0.000175892695402)
(146 0 0.000337456881426)
(146 1 0.000611395905963)
(147 0 0.00135450631798)
(147 1 0.00245406054225)
(148 0 0.00664028229678)
(148 1 0.0086774853798)
(149 0 0.000369319738362)
(149 1 4.13178873588e-05)
(150 0 0.000774373399279)
(150 1 0.00140293223477)
(151 0 0.000416976423782)
(151 1 0.000755436158589)
(152 0 0.000864089104763)
(152 1 0.00112918701921)
(153 0 0.000662325745815)
(153 1 0.00112014558585)
(154 0 0.000840131662904)
(154 1 0.00198420648967)
(155 0 0.00743552230725)
(155 1 0.00233844893273)
(156 0 0.000337456881426)
(156 1 0.000611395905963)
(157 0 0.000217097022525)
(157 1 0.000120053979629)
(158 0 0.000449942508567)
(158 1 0.000815194541284)
(159 0 0.00626413854524)
(159 1 0.00448396026802)
(160 0 0.00637731491102)
(160 1 0.0115610709643)
(161 0 0.00168114442101)
(161 1 0.00303178197751)
(162 0 0.000486067960952)
(162 1 0.000866233845188)
(163 0 0.00345221033808)
(163 1 0.00625436923456)
(164 0 0.0106607440888)
(164 1 0.0139314033401)
(165 0 0.0020484562219)
(165 1 0.0026769116315)
// (166 2 0.49)
// (167 2 0.49)
// (168 2 0.01)
// (169 2 0.01)
);
