/*--------------------------C++-------------------------------------------------*\
| =========                 |                                                 |
| \\      /  F ield         | OpenFOAM: The Open Source CFD Toolbox           |
|  \\    /   O peration     | Version:  1.3                                   |
|   \\  /    A nd           | Web:      http://www.openfoam.org               |
|    \\/     M anipulation  |                                                 |
\*---------------------------------------------------------------------------*/

// FoamX Case Dictionary.

FoamFile
{
    version         2.0;
    format          ascii;
    instance        "constant";
    local           "";
    class           dictionary;
    object          landuseData;
}

// * * * * * * * * * * * * * * * * * * * * * * * * * * * * * * * * * * * * * //

//Switch to include canopy effects for simulations (yes/no)
canopy          no;

//Offset in east-west direction
subtractedX 0;

//offset in north-south direction
subtractedY 0;

//list of landuse codes, the properties are given in order as follows
//(landusecode Cd LAD-max fraction z0 Height 0 0 0)
//the paranthesis should always contain 9 values (even if only 6 are used)
landuseList
(
    (0 0.2 1.2 1 0.05 10 0 0 0)
);

//Patches to set landuse for
sourcePatches
(
    land2
    ground
    land3
    land4
);

// if no raster is given as an argument, the following code indices are used
// for the corresponding patch in the sourcePatches list
// Correspondance implied by position in the lists
patchLanduse
(
    0
    0
    0
    0
);

// ************************************************************************* //
